<?xml version="1.0" encoding="UTF-8"?>
<!-- generated on 2022-01-28 00:42:09 with exp:20000.00, endT:156000.00 maxS:10.0 -->
<routes xmlns:xsi="http://www.w3.org/2001/XMLSchema-instance" xsi:noNamespaceSchemaLocation="http://sumo.dlr.de/xsd/routes_file.xsd">
	<trip id="1" depart="3.20" from="wdown-wmain" to="eup-emain"/>
	<trip id="2" depart="10.30" from="wdown-wmain" to="eup-emain"/>
	<trip id="3" depart="24.60" from="wdown-wmain" to="eup-emain"/>
	<trip id="4" depart="27.10" from="wdown-wmain" to="eup-emain"/>
	<trip id="5" depart="31.50" from="wdown-wmain" to="eup-emain"/>
	<trip id="6" depart="48.60" from="eup-emain" to="wdown-wmain"/>
	<trip id="7" depart="60.00" from="wdown-wmain" to="eup-emain"/>
	<trip id="8" depart="65.20" from="wdown-wmain" to="eup-emain"/>
	<trip id="9" depart="69.30" from="eup-emain" to="wdown-wmain"/>
	<trip id="10" depart="73.60" from="wdown-wmain" to="eup-emain"/>
	<trip id="11" depart="89.90" from="eup-emain" to="wdown-wmain"/>
	<trip id="12" depart="103.40" from="wdown-wmain" to="eup-emain"/>
	<trip id="13" depart="104.10" from="eup-emain" to="wdown-wmain"/>
	<trip id="14" depart="108.30" from="wdown-wmain" to="eup-emain"/>
	<trip id="15" depart="118.10" from="wdown-wmain" to="eup-emain"/>
	<trip id="16" depart="123.50" from="wdown-wmain" to="eup-emain"/>
	<trip id="17" depart="125.30" from="eup-emain" to="wdown-wmain"/>
	<trip id="18" depart="125.50" from="wdown-wmain" to="eup-emain"/>
	<trip id="19" depart="143.00" from="eup-emain" to="wdown-wmain"/>
	<trip id="20" depart="147.70" from="wdown-wmain" to="eup-emain"/>
	<trip id="21" depart="177.60" from="wdown-wmain" to="eup-emain"/>
	<trip id="22" depart="179.90" from="wdown-wmain" to="eup-emain"/>
	<trip id="23" depart="193.60" from="wdown-wmain" to="eup-emain"/>
	<trip id="24" depart="212.20" from="wdown-wmain" to="eup-emain"/>
	<trip id="25" depart="223.50" from="wdown-wmain" to="eup-emain"/>
	<trip id="26" depart="231.30" from="wdown-wmain" to="eup-emain"/>
	<trip id="27" depart="234.00" from="eup-emain" to="wdown-wmain"/>
	<trip id="28" depart="241.50" from="wdown-wmain" to="eup-emain"/>
	<trip id="29" depart="246.50" from="wdown-wmain" to="eup-emain"/>
	<trip id="30" depart="247.00" from="wdown-wmain" to="eup-emain"/>
	<trip id="31" depart="249.40" from="wdown-wmain" to="eup-emain"/>
	<trip id="32" depart="263.10" from="eup-emain" to="wdown-wmain"/>
	<trip id="33" depart="266.00" from="eup-emain" to="wdown-wmain"/>
	<trip id="34" depart="273.30" from="eup-emain" to="wdown-wmain"/>
	<trip id="35" depart="280.70" from="eup-emain" to="wdown-wmain"/>
	<trip id="36" depart="280.80" from="wdown-wmain" to="eup-emain"/>
	<trip id="37" depart="281.20" from="wdown-wmain" to="eup-emain"/>
	<trip id="38" depart="296.30" from="eup-emain" to="wdown-wmain"/>
	<trip id="39" depart="301.70" from="wdown-wmain" to="eup-emain"/>
	<trip id="40" depart="303.40" from="eup-emain" to="wdown-wmain"/>
	<trip id="41" depart="305.50" from="eup-emain" to="wdown-wmain"/>
	<trip id="42" depart="307.60" from="eup-emain" to="wdown-wmain"/>
	<trip id="43" depart="309.10" from="eup-emain" to="wdown-wmain"/>
	<trip id="44" depart="319.80" from="eup-emain" to="wdown-wmain"/>
	<trip id="45" depart="320.40" from="eup-emain" to="wdown-wmain"/>
	<trip id="46" depart="323.90" from="wdown-wmain" to="eup-emain"/>
	<trip id="47" depart="324.20" from="eup-emain" to="wdown-wmain"/>
	<trip id="48" depart="341.10" from="eup-emain" to="wdown-wmain"/>
	<trip id="49" depart="343.90" from="eup-emain" to="wdown-wmain"/>
	<trip id="50" depart="364.10" from="eup-emain" to="wdown-wmain"/>
	<trip id="51" depart="369.30" from="wdown-wmain" to="eup-emain"/>
	<trip id="52" depart="374.10" from="eup-emain" to="wdown-wmain"/>
	<trip id="53" depart="377.40" from="wdown-wmain" to="eup-emain"/>
	<trip id="54" depart="378.00" from="eup-emain" to="wdown-wmain"/>
	<trip id="55" depart="392.40" from="eup-emain" to="wdown-wmain"/>
	<trip id="56" depart="400.40" from="wdown-wmain" to="eup-emain"/>
	<trip id="57" depart="409.30" from="eup-emain" to="wdown-wmain"/>
	<trip id="58" depart="416.70" from="wdown-wmain" to="eup-emain"/>
	<trip id="59" depart="423.30" from="eup-emain" to="wdown-wmain"/>
	<trip id="60" depart="430.30" from="wdown-wmain" to="eup-emain"/>
	<trip id="61" depart="432.30" from="wdown-wmain" to="eup-emain"/>
	<trip id="62" depart="439.90" from="eup-emain" to="wdown-wmain"/>
	<trip id="63" depart="442.30" from="wdown-wmain" to="eup-emain"/>
	<trip id="64" depart="471.30" from="wdown-wmain" to="eup-emain"/>
	<trip id="65" depart="484.20" from="wdown-wmain" to="eup-emain"/>
	<trip id="66" depart="487.50" from="wdown-wmain" to="eup-emain"/>
	<trip id="67" depart="505.60" from="wdown-wmain" to="eup-emain"/>
	<trip id="68" depart="531.20" from="wdown-wmain" to="eup-emain"/>
	<trip id="69" depart="534.00" from="wdown-wmain" to="eup-emain"/>
	<trip id="70" depart="535.20" from="wdown-wmain" to="eup-emain"/>
	<trip id="71" depart="548.50" from="eup-emain" to="wdown-wmain"/>
	<trip id="72" depart="552.50" from="wdown-wmain" to="eup-emain"/>
	<trip id="73" depart="564.20" from="eup-emain" to="wdown-wmain"/>
	<trip id="74" depart="573.20" from="wdown-wmain" to="eup-emain"/>
	<trip id="75" depart="588.60" from="eup-emain" to="wdown-wmain"/>
	<trip id="76" depart="606.00" from="wdown-wmain" to="eup-emain"/>
	<trip id="77" depart="610.60" from="wdown-wmain" to="eup-emain"/>
	<trip id="78" depart="610.70" from="wdown-wmain" to="eup-emain"/>
	<trip id="79" depart="612.70" from="wdown-wmain" to="eup-emain"/>
	<trip id="80" depart="619.80" from="eup-emain" to="wdown-wmain"/>
	<trip id="81" depart="636.40" from="wdown-wmain" to="eup-emain"/>
	<trip id="82" depart="650.20" from="eup-emain" to="wdown-wmain"/>
	<trip id="83" depart="658.40" from="eup-emain" to="wdown-wmain"/>
	<trip id="84" depart="662.20" from="eup-emain" to="wdown-wmain"/>
	<trip id="85" depart="672.10" from="wdown-wmain" to="eup-emain"/>
	<trip id="86" depart="677.70" from="wdown-wmain" to="eup-emain"/>
	<trip id="87" depart="680.60" from="wdown-wmain" to="eup-emain"/>
	<trip id="88" depart="681.00" from="wdown-wmain" to="eup-emain"/>
	<trip id="89" depart="686.60" from="eup-emain" to="wdown-wmain"/>
	<trip id="90" depart="691.30" from="eup-emain" to="wdown-wmain"/>
	<trip id="91" depart="691.90" from="wdown-wmain" to="eup-emain"/>
	<trip id="92" depart="703.80" from="wdown-wmain" to="eup-emain"/>
	<trip id="93" depart="713.70" from="eup-emain" to="wdown-wmain"/>
	<trip id="94" depart="717.70" from="eup-emain" to="wdown-wmain"/>
	<trip id="95" depart="737.20" from="eup-emain" to="wdown-wmain"/>
	<trip id="96" depart="752.60" from="eup-emain" to="wdown-wmain"/>
	<trip id="97" depart="753.90" from="wdown-wmain" to="eup-emain"/>
	<trip id="98" depart="759.60" from="eup-emain" to="wdown-wmain"/>
	<trip id="99" depart="772.70" from="wdown-wmain" to="eup-emain"/>
	<trip id="100" depart="775.60" from="wdown-wmain" to="eup-emain"/>
	<trip id="101" depart="784.00" from="eup-emain" to="wdown-wmain"/>
	<trip id="102" depart="784.90" from="eup-emain" to="wdown-wmain"/>
	<trip id="103" depart="790.00" from="wdown-wmain" to="eup-emain"/>
	<trip id="104" depart="813.10" from="wdown-wmain" to="eup-emain"/>
	<trip id="105" depart="813.30" from="eup-emain" to="wdown-wmain"/>
	<trip id="106" depart="822.30" from="eup-emain" to="wdown-wmain"/>
	<trip id="107" depart="848.40" from="eup-emain" to="wdown-wmain"/>
	<trip id="108" depart="858.10" from="wdown-wmain" to="eup-emain"/>
	<trip id="109" depart="862.40" from="wdown-wmain" to="eup-emain"/>
	<trip id="110" depart="863.70" from="eup-emain" to="wdown-wmain"/>
	<trip id="111" depart="870.80" from="wdown-wmain" to="eup-emain"/>
	<trip id="112" depart="876.70" from="wdown-wmain" to="eup-emain"/>
	<trip id="113" depart="879.40" from="wdown-wmain" to="eup-emain"/>
	<trip id="114" depart="881.50" from="wdown-wmain" to="eup-emain"/>
	<trip id="115" depart="888.50" from="wdown-wmain" to="eup-emain"/>
	<trip id="116" depart="889.50" from="eup-emain" to="wdown-wmain"/>
	<trip id="117" depart="892.10" from="wdown-wmain" to="eup-emain"/>
	<trip id="118" depart="902.70" from="eup-emain" to="wdown-wmain"/>
	<trip id="119" depart="909.30" from="eup-emain" to="wdown-wmain"/>
	<trip id="120" depart="935.30" from="wdown-wmain" to="eup-emain"/>
	<trip id="121" depart="939.50" from="eup-emain" to="wdown-wmain"/>
	<trip id="122" depart="942.30" from="wdown-wmain" to="eup-emain"/>
	<trip id="123" depart="961.90" from="eup-emain" to="wdown-wmain"/>
	<trip id="124" depart="1014.00" from="wdown-wmain" to="eup-emain"/>
	<trip id="125" depart="1030.00" from="wdown-wmain" to="eup-emain"/>
	<trip id="126" depart="1047.50" from="wdown-wmain" to="eup-emain"/>
	<trip id="127" depart="1058.30" from="eup-emain" to="wdown-wmain"/>
	<trip id="128" depart="1058.40" from="wdown-wmain" to="eup-emain"/>
	<trip id="129" depart="1062.50" from="wdown-wmain" to="eup-emain"/>
	<trip id="130" depart="1074.10" from="wdown-wmain" to="eup-emain"/>
	<trip id="131" depart="1080.10" from="wdown-wmain" to="eup-emain"/>
	<trip id="132" depart="1082.00" from="eup-emain" to="wdown-wmain"/>
	<trip id="133" depart="1083.50" from="wdown-wmain" to="eup-emain"/>
	<trip id="134" depart="1084.50" from="wdown-wmain" to="eup-emain"/>
	<trip id="135" depart="1089.30" from="wdown-wmain" to="eup-emain"/>
	<trip id="136" depart="1107.90" from="wdown-wmain" to="eup-emain"/>
	<trip id="137" depart="1109.10" from="eup-emain" to="wdown-wmain"/>
	<trip id="138" depart="1111.50" from="eup-emain" to="wdown-wmain"/>
	<trip id="139" depart="1120.00" from="wdown-wmain" to="eup-emain"/>
	<trip id="140" depart="1125.00" from="eup-emain" to="wdown-wmain"/>
	<trip id="141" depart="1125.20" from="eup-emain" to="wdown-wmain"/>
	<trip id="142" depart="1150.20" from="wdown-wmain" to="eup-emain"/>
	<trip id="143" depart="1153.80" from="eup-emain" to="wdown-wmain"/>
	<trip id="144" depart="1163.40" from="eup-emain" to="wdown-wmain"/>
	<trip id="145" depart="1167.20" from="wdown-wmain" to="eup-emain"/>
	<trip id="146" depart="1176.80" from="wdown-wmain" to="eup-emain"/>
	<trip id="147" depart="1179.50" from="eup-emain" to="wdown-wmain"/>
	<trip id="148" depart="1187.50" from="wdown-wmain" to="eup-emain"/>
	<trip id="149" depart="1205.50" from="wdown-wmain" to="eup-emain"/>
	<trip id="150" depart="1210.20" from="eup-emain" to="wdown-wmain"/>
	<trip id="151" depart="1221.00" from="wdown-wmain" to="eup-emain"/>
	<trip id="152" depart="1227.00" from="wdown-wmain" to="eup-emain"/>
	<trip id="153" depart="1231.90" from="wdown-wmain" to="eup-emain"/>
	<trip id="154" depart="1235.60" from="eup-emain" to="wdown-wmain"/>
	<trip id="155" depart="1238.20" from="wdown-wmain" to="eup-emain"/>
	<trip id="156" depart="1244.90" from="eup-emain" to="wdown-wmain"/>
	<trip id="157" depart="1262.00" from="eup-emain" to="wdown-wmain"/>
	<trip id="158" depart="1263.50" from="wdown-wmain" to="eup-emain"/>
	<trip id="159" depart="1264.00" from="wdown-wmain" to="eup-emain"/>
	<trip id="160" depart="1265.20" from="wdown-wmain" to="eup-emain"/>
	<trip id="161" depart="1265.90" from="wdown-wmain" to="eup-emain"/>
	<trip id="162" depart="1284.00" from="eup-emain" to="wdown-wmain"/>
	<trip id="163" depart="1287.40" from="wdown-wmain" to="eup-emain"/>
	<trip id="164" depart="1292.30" from="wdown-wmain" to="eup-emain"/>
	<trip id="165" depart="1303.10" from="eup-emain" to="wdown-wmain"/>
	<trip id="166" depart="1318.80" from="wdown-wmain" to="eup-emain"/>
	<trip id="167" depart="1328.80" from="eup-emain" to="wdown-wmain"/>
	<trip id="168" depart="1350.30" from="eup-emain" to="wdown-wmain"/>
	<trip id="169" depart="1354.60" from="wdown-wmain" to="eup-emain"/>
	<trip id="170" depart="1364.00" from="wdown-wmain" to="eup-emain"/>
	<trip id="171" depart="1372.20" from="eup-emain" to="wdown-wmain"/>
	<trip id="172" depart="1378.10" from="eup-emain" to="wdown-wmain"/>
	<trip id="173" depart="1381.70" from="wdown-wmain" to="eup-emain"/>
	<trip id="174" depart="1385.90" from="wdown-wmain" to="eup-emain"/>
	<trip id="175" depart="1386.20" from="wdown-wmain" to="eup-emain"/>
	<trip id="176" depart="1393.30" from="wdown-wmain" to="eup-emain"/>
	<trip id="177" depart="1400.60" from="eup-emain" to="wdown-wmain"/>
	<trip id="178" depart="1401.10" from="eup-emain" to="wdown-wmain"/>
	<trip id="179" depart="1407.80" from="wdown-wmain" to="eup-emain"/>
	<trip id="180" depart="1411.00" from="eup-emain" to="wdown-wmain"/>
	<trip id="181" depart="1432.20" from="eup-emain" to="wdown-wmain"/>
	<trip id="182" depart="1432.30" from="wdown-wmain" to="eup-emain"/>
	<trip id="183" depart="1441.00" from="wdown-wmain" to="eup-emain"/>
	<trip id="184" depart="1441.40" from="wdown-wmain" to="eup-emain"/>
	<trip id="185" depart="1446.30" from="eup-emain" to="wdown-wmain"/>
	<trip id="186" depart="1448.30" from="eup-emain" to="wdown-wmain"/>
	<trip id="187" depart="1452.70" from="wdown-wmain" to="eup-emain"/>
	<trip id="188" depart="1460.80" from="eup-emain" to="wdown-wmain"/>
	<trip id="189" depart="1464.80" from="eup-emain" to="wdown-wmain"/>
	<trip id="190" depart="1479.70" from="eup-emain" to="wdown-wmain"/>
	<trip id="191" depart="1480.60" from="wdown-wmain" to="eup-emain"/>
	<trip id="192" depart="1482.50" from="wdown-wmain" to="eup-emain"/>
	<trip id="193" depart="1487.90" from="wdown-wmain" to="eup-emain"/>
	<trip id="194" depart="1492.40" from="eup-emain" to="wdown-wmain"/>
	<trip id="195" depart="1497.60" from="wdown-wmain" to="eup-emain"/>
	<trip id="196" depart="1504.40" from="wdown-wmain" to="eup-emain"/>
	<trip id="197" depart="1507.70" from="wdown-wmain" to="eup-emain"/>
	<trip id="198" depart="1511.50" from="eup-emain" to="wdown-wmain"/>
	<trip id="199" depart="1515.50" from="wdown-wmain" to="eup-emain"/>
	<trip id="200" depart="1541.60" from="wdown-wmain" to="eup-emain"/>
	<trip id="201" depart="1550.50" from="eup-emain" to="wdown-wmain"/>
	<trip id="202" depart="1582.50" from="wdown-wmain" to="eup-emain"/>
	<trip id="203" depart="1593.60" from="eup-emain" to="wdown-wmain"/>
	<trip id="204" depart="1608.70" from="wdown-wmain" to="eup-emain"/>
	<trip id="205" depart="1613.50" from="wdown-wmain" to="eup-emain"/>
	<trip id="206" depart="1619.20" from="eup-emain" to="wdown-wmain"/>
	<trip id="207" depart="1620.30" from="eup-emain" to="wdown-wmain"/>
	<trip id="208" depart="1627.60" from="eup-emain" to="wdown-wmain"/>
	<trip id="209" depart="1637.40" from="eup-emain" to="wdown-wmain"/>
	<trip id="210" depart="1641.90" from="eup-emain" to="wdown-wmain"/>
	<trip id="211" depart="1653.20" from="eup-emain" to="wdown-wmain"/>
	<trip id="212" depart="1657.50" from="eup-emain" to="wdown-wmain"/>
	<trip id="213" depart="1659.80" from="wdown-wmain" to="eup-emain"/>
	<trip id="214" depart="1680.50" from="wdown-wmain" to="eup-emain"/>
	<trip id="215" depart="1683.40" from="eup-emain" to="wdown-wmain"/>
	<trip id="216" depart="1695.00" from="eup-emain" to="wdown-wmain"/>
	<trip id="217" depart="1701.70" from="wdown-wmain" to="eup-emain"/>
	<trip id="218" depart="1703.10" from="eup-emain" to="wdown-wmain"/>
	<trip id="219" depart="1722.00" from="wdown-wmain" to="eup-emain"/>
	<trip id="220" depart="1726.50" from="wdown-wmain" to="eup-emain"/>
	<trip id="221" depart="1729.60" from="eup-emain" to="wdown-wmain"/>
	<trip id="222" depart="1739.50" from="eup-emain" to="wdown-wmain"/>
	<trip id="223" depart="1755.90" from="eup-emain" to="wdown-wmain"/>
	<trip id="224" depart="1760.20" from="eup-emain" to="wdown-wmain"/>
	<trip id="225" depart="1761.30" from="wdown-wmain" to="eup-emain"/>
	<trip id="226" depart="1767.00" from="eup-emain" to="wdown-wmain"/>
	<trip id="227" depart="1773.00" from="wdown-wmain" to="eup-emain"/>
	<trip id="228" depart="1773.30" from="wdown-wmain" to="eup-emain"/>
	<trip id="229" depart="1775.90" from="wdown-wmain" to="eup-emain"/>
	<trip id="230" depart="1785.20" from="wdown-wmain" to="eup-emain"/>
	<trip id="231" depart="1795.00" from="wdown-wmain" to="eup-emain"/>
	<trip id="232" depart="1796.90" from="eup-emain" to="wdown-wmain"/>
	<trip id="233" depart="1804.10" from="wdown-wmain" to="eup-emain"/>
	<trip id="234" depart="1806.80" from="wdown-wmain" to="eup-emain"/>
	<trip id="235" depart="1809.90" from="eup-emain" to="wdown-wmain"/>
	<trip id="236" depart="1811.90" from="wdown-wmain" to="eup-emain"/>
	<trip id="237" depart="1814.60" from="wdown-wmain" to="eup-emain"/>
	<trip id="238" depart="1827.60" from="wdown-wmain" to="eup-emain"/>
	<trip id="239" depart="1828.30" from="eup-emain" to="wdown-wmain"/>
	<trip id="240" depart="1830.70" from="wdown-wmain" to="eup-emain"/>
	<trip id="241" depart="1840.30" from="wdown-wmain" to="eup-emain"/>
	<trip id="242" depart="1840.90" from="eup-emain" to="wdown-wmain"/>
	<trip id="243" depart="1863.60" from="eup-emain" to="wdown-wmain"/>
	<trip id="244" depart="1864.50" from="wdown-wmain" to="eup-emain"/>
	<trip id="245" depart="1866.50" from="eup-emain" to="wdown-wmain"/>
	<trip id="246" depart="1877.10" from="wdown-wmain" to="eup-emain"/>
	<trip id="247" depart="1883.80" from="eup-emain" to="wdown-wmain"/>
	<trip id="248" depart="1886.00" from="eup-emain" to="wdown-wmain"/>
	<trip id="249" depart="1890.70" from="wdown-wmain" to="eup-emain"/>
	<trip id="250" depart="1908.00" from="wdown-wmain" to="eup-emain"/>
	<trip id="251" depart="1918.30" from="eup-emain" to="wdown-wmain"/>
	<trip id="252" depart="1925.10" from="eup-emain" to="wdown-wmain"/>
	<trip id="253" depart="1928.00" from="eup-emain" to="wdown-wmain"/>
	<trip id="254" depart="1928.80" from="wdown-wmain" to="eup-emain"/>
	<trip id="255" depart="1934.20" from="wdown-wmain" to="eup-emain"/>
	<trip id="256" depart="1934.40" from="eup-emain" to="wdown-wmain"/>
	<trip id="257" depart="1951.50" from="eup-emain" to="wdown-wmain"/>
	<trip id="258" depart="1953.20" from="eup-emain" to="wdown-wmain"/>
	<trip id="259" depart="1954.90" from="wdown-wmain" to="eup-emain"/>
	<trip id="260" depart="1959.20" from="wdown-wmain" to="eup-emain"/>
	<trip id="261" depart="1977.80" from="wdown-wmain" to="eup-emain"/>
	<trip id="262" depart="2003.20" from="eup-emain" to="wdown-wmain"/>
	<trip id="263" depart="2008.20" from="wdown-wmain" to="eup-emain"/>
	<trip id="264" depart="2011.10" from="eup-emain" to="wdown-wmain"/>
	<trip id="265" depart="2020.30" from="wdown-wmain" to="eup-emain"/>
	<trip id="266" depart="2030.00" from="wdown-wmain" to="eup-emain"/>
	<trip id="267" depart="2036.20" from="eup-emain" to="wdown-wmain"/>
	<trip id="268" depart="2048.40" from="eup-emain" to="wdown-wmain"/>
	<trip id="269" depart="2069.10" from="eup-emain" to="wdown-wmain"/>
	<trip id="270" depart="2082.90" from="wdown-wmain" to="eup-emain"/>
	<trip id="271" depart="2092.20" from="wdown-wmain" to="eup-emain"/>
	<trip id="272" depart="2096.20" from="eup-emain" to="wdown-wmain"/>
	<trip id="273" depart="2101.80" from="eup-emain" to="wdown-wmain"/>
	<trip id="274" depart="2110.30" from="eup-emain" to="wdown-wmain"/>
	<trip id="275" depart="2112.60" from="wdown-wmain" to="eup-emain"/>
	<trip id="276" depart="2112.70" from="eup-emain" to="wdown-wmain"/>
	<trip id="277" depart="2128.90" from="wdown-wmain" to="eup-emain"/>
	<trip id="278" depart="2137.40" from="eup-emain" to="wdown-wmain"/>
	<trip id="279" depart="2143.00" from="eup-emain" to="wdown-wmain"/>
	<trip id="280" depart="2143.90" from="wdown-wmain" to="eup-emain"/>
	<trip id="281" depart="2155.40" from="eup-emain" to="wdown-wmain"/>
	<trip id="282" depart="2158.90" from="eup-emain" to="wdown-wmain"/>
	<trip id="283" depart="2169.10" from="wdown-wmain" to="eup-emain"/>
	<trip id="284" depart="2171.60" from="wdown-wmain" to="eup-emain"/>
	<trip id="285" depart="2178.20" from="wdown-wmain" to="eup-emain"/>
	<trip id="286" depart="2186.90" from="wdown-wmain" to="eup-emain"/>
	<trip id="287" depart="2192.30" from="wdown-wmain" to="eup-emain"/>
	<trip id="288" depart="2205.30" from="eup-emain" to="wdown-wmain"/>
	<trip id="289" depart="2206.10" from="eup-emain" to="wdown-wmain"/>
	<trip id="290" depart="2218.30" from="eup-emain" to="wdown-wmain"/>
	<trip id="291" depart="2223.50" from="wdown-wmain" to="eup-emain"/>
	<trip id="292" depart="2223.90" from="eup-emain" to="wdown-wmain"/>
	<trip id="293" depart="2248.80" from="eup-emain" to="wdown-wmain"/>
	<trip id="294" depart="2254.80" from="eup-emain" to="wdown-wmain"/>
	<trip id="295" depart="2262.10" from="wdown-wmain" to="eup-emain"/>
	<trip id="296" depart="2268.70" from="wdown-wmain" to="eup-emain"/>
	<trip id="297" depart="2301.90" from="wdown-wmain" to="eup-emain"/>
	<trip id="298" depart="2312.60" from="eup-emain" to="wdown-wmain"/>
	<trip id="299" depart="2325.50" from="eup-emain" to="wdown-wmain"/>
	<trip id="300" depart="2326.90" from="wdown-wmain" to="eup-emain"/>
	<trip id="301" depart="2329.80" from="wdown-wmain" to="eup-emain"/>
	<trip id="302" depart="2332.50" from="wdown-wmain" to="eup-emain"/>
	<trip id="303" depart="2340.70" from="wdown-wmain" to="eup-emain"/>
	<trip id="304" depart="2349.10" from="wdown-wmain" to="eup-emain"/>
	<trip id="305" depart="2367.90" from="eup-emain" to="wdown-wmain"/>
	<trip id="306" depart="2370.70" from="eup-emain" to="wdown-wmain"/>
	<trip id="307" depart="2374.60" from="eup-emain" to="wdown-wmain"/>
	<trip id="308" depart="2387.00" from="eup-emain" to="wdown-wmain"/>
	<trip id="309" depart="2388.70" from="wdown-wmain" to="eup-emain"/>
	<trip id="310" depart="2393.50" from="eup-emain" to="wdown-wmain"/>
	<trip id="311" depart="2399.10" from="eup-emain" to="wdown-wmain"/>
	<trip id="312" depart="2425.50" from="eup-emain" to="wdown-wmain"/>
	<trip id="313" depart="2426.90" from="wdown-wmain" to="eup-emain"/>
	<trip id="314" depart="2432.20" from="wdown-wmain" to="eup-emain"/>
	<trip id="315" depart="2481.30" from="wdown-wmain" to="eup-emain"/>
	<trip id="316" depart="2482.80" from="wdown-wmain" to="eup-emain"/>
	<trip id="317" depart="2490.00" from="wdown-wmain" to="eup-emain"/>
	<trip id="318" depart="2490.50" from="eup-emain" to="wdown-wmain"/>
	<trip id="319" depart="2495.70" from="wdown-wmain" to="eup-emain"/>
	<trip id="320" depart="2497.00" from="eup-emain" to="wdown-wmain"/>
	<trip id="321" depart="2499.50" from="eup-emain" to="wdown-wmain"/>
	<trip id="322" depart="2512.00" from="eup-emain" to="wdown-wmain"/>
	<trip id="323" depart="2512.60" from="eup-emain" to="wdown-wmain"/>
	<trip id="324" depart="2527.70" from="eup-emain" to="wdown-wmain"/>
	<trip id="325" depart="2561.40" from="wdown-wmain" to="eup-emain"/>
	<trip id="326" depart="2563.90" from="wdown-wmain" to="eup-emain"/>
	<trip id="327" depart="2568.10" from="eup-emain" to="wdown-wmain"/>
	<trip id="328" depart="2589.90" from="wdown-wmain" to="eup-emain"/>
	<trip id="329" depart="2592.40" from="eup-emain" to="wdown-wmain"/>
	<trip id="330" depart="2595.60" from="eup-emain" to="wdown-wmain"/>
	<trip id="331" depart="2605.90" from="eup-emain" to="wdown-wmain"/>
	<trip id="332" depart="2610.90" from="wdown-wmain" to="eup-emain"/>
	<trip id="333" depart="2618.50" from="eup-emain" to="wdown-wmain"/>
	<trip id="334" depart="2621.10" from="wdown-wmain" to="eup-emain"/>
	<trip id="335" depart="2622.00" from="wdown-wmain" to="eup-emain"/>
	<trip id="336" depart="2623.20" from="eup-emain" to="wdown-wmain"/>
	<trip id="337" depart="2630.30" from="wdown-wmain" to="eup-emain"/>
	<trip id="338" depart="2642.10" from="eup-emain" to="wdown-wmain"/>
	<trip id="339" depart="2642.80" from="wdown-wmain" to="eup-emain"/>
	<trip id="340" depart="2657.00" from="eup-emain" to="wdown-wmain"/>
	<trip id="341" depart="2659.10" from="eup-emain" to="wdown-wmain"/>
	<trip id="342" depart="2669.70" from="eup-emain" to="wdown-wmain"/>
	<trip id="343" depart="2676.10" from="wdown-wmain" to="eup-emain"/>
	<trip id="344" depart="2686.30" from="wdown-wmain" to="eup-emain"/>
	<trip id="345" depart="2695.90" from="wdown-wmain" to="eup-emain"/>
	<trip id="346" depart="2707.50" from="eup-emain" to="wdown-wmain"/>
	<trip id="347" depart="2712.30" from="wdown-wmain" to="eup-emain"/>
	<trip id="348" depart="2713.10" from="eup-emain" to="wdown-wmain"/>
	<trip id="349" depart="2717.10" from="eup-emain" to="wdown-wmain"/>
	<trip id="350" depart="2719.50" from="eup-emain" to="wdown-wmain"/>
	<trip id="351" depart="2746.90" from="eup-emain" to="wdown-wmain"/>
	<trip id="352" depart="2762.90" from="eup-emain" to="wdown-wmain"/>
	<trip id="353" depart="2777.20" from="wdown-wmain" to="eup-emain"/>
	<trip id="354" depart="2785.40" from="wdown-wmain" to="eup-emain"/>
	<trip id="355" depart="2797.80" from="eup-emain" to="wdown-wmain"/>
	<trip id="356" depart="2802.70" from="wdown-wmain" to="eup-emain"/>
	<trip id="357" depart="2825.20" from="wdown-wmain" to="eup-emain"/>
	<trip id="358" depart="2835.40" from="eup-emain" to="wdown-wmain"/>
	<trip id="359" depart="2840.60" from="wdown-wmain" to="eup-emain"/>
	<trip id="360" depart="2840.80" from="wdown-wmain" to="eup-emain"/>
	<trip id="361" depart="2842.00" from="eup-emain" to="wdown-wmain"/>
	<trip id="362" depart="2846.70" from="wdown-wmain" to="eup-emain"/>
	<trip id="363" depart="2886.30" from="wdown-wmain" to="eup-emain"/>
	<trip id="364" depart="2889.60" from="wdown-wmain" to="eup-emain"/>
	<trip id="365" depart="2901.50" from="wdown-wmain" to="eup-emain"/>
	<trip id="366" depart="2913.80" from="eup-emain" to="wdown-wmain"/>
	<trip id="367" depart="2920.60" from="wdown-wmain" to="eup-emain"/>
	<trip id="368" depart="2924.70" from="eup-emain" to="wdown-wmain"/>
	<trip id="369" depart="2928.90" from="wdown-wmain" to="eup-emain"/>
	<trip id="370" depart="2934.50" from="eup-emain" to="wdown-wmain"/>
	<trip id="371" depart="2958.00" from="wdown-wmain" to="eup-emain"/>
	<trip id="372" depart="2987.10" from="wdown-wmain" to="eup-emain"/>
	<trip id="373" depart="2987.80" from="wdown-wmain" to="eup-emain"/>
	<trip id="374" depart="2992.20" from="wdown-wmain" to="eup-emain"/>
	<trip id="375" depart="2996.50" from="wdown-wmain" to="eup-emain"/>
	<trip id="376" depart="3009.20" from="eup-emain" to="wdown-wmain"/>
	<trip id="377" depart="3018.30" from="eup-emain" to="wdown-wmain"/>
	<trip id="378" depart="3025.80" from="wdown-wmain" to="eup-emain"/>
	<trip id="379" depart="3036.60" from="wdown-wmain" to="eup-emain"/>
	<trip id="380" depart="3043.30" from="eup-emain" to="wdown-wmain"/>
	<trip id="381" depart="3051.50" from="eup-emain" to="wdown-wmain"/>
	<trip id="382" depart="3054.40" from="wdown-wmain" to="eup-emain"/>
	<trip id="383" depart="3058.50" from="eup-emain" to="wdown-wmain"/>
	<trip id="384" depart="3073.00" from="eup-emain" to="wdown-wmain"/>
	<trip id="385" depart="3087.70" from="eup-emain" to="wdown-wmain"/>
	<trip id="386" depart="3092.30" from="eup-emain" to="wdown-wmain"/>
	<trip id="387" depart="3098.80" from="wdown-wmain" to="eup-emain"/>
	<trip id="388" depart="3099.40" from="wdown-wmain" to="eup-emain"/>
	<trip id="389" depart="3099.50" from="eup-emain" to="wdown-wmain"/>
	<trip id="390" depart="3107.30" from="wdown-wmain" to="eup-emain"/>
	<trip id="391" depart="3122.10" from="eup-emain" to="wdown-wmain"/>
	<trip id="392" depart="3124.50" from="eup-emain" to="wdown-wmain"/>
	<trip id="393" depart="3129.80" from="wdown-wmain" to="eup-emain"/>
	<trip id="394" depart="3135.40" from="eup-emain" to="wdown-wmain"/>
	<trip id="395" depart="3138.20" from="wdown-wmain" to="eup-emain"/>
	<trip id="396" depart="3141.80" from="wdown-wmain" to="eup-emain"/>
	<trip id="397" depart="3154.10" from="eup-emain" to="wdown-wmain"/>
	<trip id="398" depart="3164.90" from="eup-emain" to="wdown-wmain"/>
	<trip id="399" depart="3176.70" from="eup-emain" to="wdown-wmain"/>
	<trip id="400" depart="3183.40" from="wdown-wmain" to="eup-emain"/>
	<trip id="401" depart="3184.20" from="wdown-wmain" to="eup-emain"/>
	<trip id="402" depart="3191.90" from="wdown-wmain" to="eup-emain"/>
	<trip id="403" depart="3209.90" from="wdown-wmain" to="eup-emain"/>
	<trip id="404" depart="3242.00" from="wdown-wmain" to="eup-emain"/>
	<trip id="405" depart="3242.20" from="eup-emain" to="wdown-wmain"/>
	<trip id="406" depart="3255.00" from="wdown-wmain" to="eup-emain"/>
	<trip id="407" depart="3256.30" from="eup-emain" to="wdown-wmain"/>
	<trip id="408" depart="3262.20" from="wdown-wmain" to="eup-emain"/>
	<trip id="409" depart="3264.50" from="eup-emain" to="wdown-wmain"/>
	<trip id="410" depart="3267.20" from="wdown-wmain" to="eup-emain"/>
	<trip id="411" depart="3279.40" from="eup-emain" to="wdown-wmain"/>
	<trip id="412" depart="3290.00" from="eup-emain" to="wdown-wmain"/>
	<trip id="413" depart="3299.60" from="eup-emain" to="wdown-wmain"/>
	<trip id="414" depart="3324.40" from="eup-emain" to="wdown-wmain"/>
	<trip id="415" depart="3327.10" from="eup-emain" to="wdown-wmain"/>
	<trip id="416" depart="3327.50" from="eup-emain" to="wdown-wmain"/>
	<trip id="417" depart="3340.80" from="wdown-wmain" to="eup-emain"/>
	<trip id="418" depart="3346.30" from="wdown-wmain" to="eup-emain"/>
	<trip id="419" depart="3387.90" from="wdown-wmain" to="eup-emain"/>
	<trip id="420" depart="3439.00" from="eup-emain" to="wdown-wmain"/>
	<trip id="421" depart="3453.90" from="wdown-wmain" to="eup-emain"/>
	<trip id="422" depart="3454.20" from="eup-emain" to="wdown-wmain"/>
	<trip id="423" depart="3456.00" from="eup-emain" to="wdown-wmain"/>
	<trip id="424" depart="3468.60" from="eup-emain" to="wdown-wmain"/>
	<trip id="425" depart="3469.10" from="eup-emain" to="wdown-wmain"/>
	<trip id="426" depart="3470.50" from="eup-emain" to="wdown-wmain"/>
	<trip id="427" depart="3496.60" from="eup-emain" to="wdown-wmain"/>
	<trip id="428" depart="3497.80" from="eup-emain" to="wdown-wmain"/>
	<trip id="429" depart="3497.80" from="wdown-wmain" to="eup-emain"/>
	<trip id="430" depart="3502.70" from="eup-emain" to="wdown-wmain"/>
	<trip id="431" depart="3504.10" from="eup-emain" to="wdown-wmain"/>
	<trip id="432" depart="3508.90" from="wdown-wmain" to="eup-emain"/>
	<trip id="433" depart="3519.40" from="wdown-wmain" to="eup-emain"/>
	<trip id="434" depart="3522.30" from="wdown-wmain" to="eup-emain"/>