<?xml version="1.0" encoding="UTF-8"?>
<routes xmlns:xsi="http://www.w3.org/2001/XMLSchema-instance" xsi:noNamespaceSchemaLocation="http://sumo.dlr.de/xsd/routes_file.xsd">
    <trip id="0" depart="0.00" from="edown-eup" to="wdown-wmain"/>
    <trip id="1" depart="0.00" from="edown-eup" to="wdown-wmain"/>
    <trip id="2" depart="0.00" from="edown-eup" to="wdown-wmain"/>
    <trip id="3" depart="0.00" from="edown-eup" to="wdown-wmain"/>
    <trip id="4" depart="0.00" from="edown-eup" to="wdown-wmain"/>
    <trip id="5" depart="0.00" from="edown-eup" to="wdown-wmain"/>
    <trip id="6" depart="0.00" from="edown-eup" to="wdown-wmain"/>
    <trip id="7" depart="0.00" from="edown-eup" to="wdown-wmain"/>
    <trip id="8" depart="0.00" from="edown-eup" to="wdown-wmain"/>
    <trip id="9" depart="0.00" from="edown-eup" to="wdown-wmain"/>
    <trip id="10" depart="0.00" from="edown-eup" to="wdown-wmain"/>
    <trip id="11" depart="0.00" from="edown-eup" to="wdown-wmain"/>
    <trip id="12" depart="0.00" from="edown-eup" to="wdown-wmain"/>
    <trip id="13" depart="0.00" from="edown-eup" to="wdown-wmain"/>
    <trip id="14" depart="0.00" from="edown-eup" to="wdown-wmain"/>
    <trip id="15" depart="0.00" from="edown-eup" to="wdown-wmain"/>
    <trip id="16" depart="0.00" from="edown-eup" to="wdown-wmain"/>
    <trip id="17" depart="0.00" from="edown-eup" to="wdown-wmain"/>
    <trip id="18" depart="0.00" from="edown-eup" to="wdown-wmain"/>
    <trip id="19" depart="0.00" from="edown-eup" to="wdown-wmain"/>
</routes>
